%nprocshared=6
%mem=8GB
%chk=test1.chk
# opt freq hf/6-311++g(2d,p) geom=connectivity

Title Card Required

0 1
 C              
 H                  1            B1
 H                  1            B2    2            A1
 H                  1            B3    3            A2    2            D1    0
 H                  1            B4    3            A3    2            D2    0

   B1             1.07000000
   B2             1.07000000
   B3             1.07000000
   B4             1.07000000
   A1           109.47120255
   A2           109.47125080
   A3           109.47121829
   D1          -119.99998525
   D2           120.00000060

 1 2 1.0 3 1.0 4 1.0 5 1.0
 2
 3
 4
 5

